Program Version,EnergyPlus, Version 8.5.0-c87e61b44b, YMD=2020.02.14 11:58
! <Version>, Version ID
 Version, 8.5
! <Timesteps per Hour>, #TimeSteps, Minutes per TimeStep {minutes}
 Timesteps per Hour,  4, 15
! <System Convergence Limits>, Minimum System TimeStep {minutes}, Max HVAC Iterations, Minimum Plant Iterations, Maximum Plant Iterations
 System Convergence Limits, 2, 25, 2, 8
! <Simulation Control>, Do Zone Sizing, Do System Sizing, Do Plant Sizing, Do Design Days, Do Weather Simulation, Do HVAC Sizing Simulation
 Simulation Control, No, No, No, No, Yes, No
! <Output Reporting Tolerances>, Tolerance for Time Heating Setpoint Not Met, Tolerance for Zone Cooling Setpoint Not Met Time
 Output Reporting Tolerances, 0.200, 0.200, 
! <Site:GroundTemperature:BuildingSurface>, Months From Jan to Dec {C}
 Site:GroundTemperature:BuildingSurface,  18.00,  18.00,  18.00,  18.00,  18.00,  18.00,  18.00,  18.00,  18.00,  18.00,  18.00,  18.00
! <Site:GroundTemperature:FCfactorMethod>, Months From Jan to Dec {C}
 Site:GroundTemperature:FCfactorMethod,   1.60,   0.70,   2.30,   4.80,  11.20,  16.20,  19.60,  20.60,  18.90,  15.00,   9.80,   5.00
! <Site:GroundTemperature:Shallow>, Months From Jan to Dec {C}
 Site:GroundTemperature:Shallow,  14.00,  14.00,  14.00,  14.00,  14.00,  14.00,  14.00,  14.00,  14.00,  14.00,  14.00,  14.00
! <Site:GroundTemperature:Deep>, Months From Jan to Dec {C}
 Site:GroundTemperature:Deep,  14.00,  14.00,  14.00,  14.00,  14.00,  14.00,  14.00,  14.00,  14.00,  14.00,  14.00,  14.00
! <Site:GroundReflectance>, Months From Jan to Dec {dimensionless}
 Site:GroundReflectance,  0.20,  0.20,  0.20,  0.20,  0.20,  0.20,  0.20,  0.20,  0.20,  0.20,  0.20,  0.20
! <Site:GroundReflectance:SnowModifier>, Normal, Daylighting {dimensionless}
 Site:GroundReflectance:SnowModifier,   1.000,   1.000
! <Site:GroundReflectance:Snow>, Months From Jan to Dec {dimensionless}
 Site:GroundReflectance:Snow,  0.20,  0.20,  0.20,  0.20,  0.20,  0.20,  0.20,  0.20,  0.20,  0.20,  0.20,  0.20
! <Site:GroundReflectance:Snow:Daylighting>, Months From Jan to Dec {dimensionless}
 Site:GroundReflectance:Snow:Daylighting,  0.20,  0.20,  0.20,  0.20,  0.20,  0.20,  0.20,  0.20,  0.20,  0.20,  0.20,  0.20
! <Environment:Weather Station>,Wind Sensor Height Above Ground {m},Wind Speed Profile Exponent {},Wind Speed Profile Boundary Layer Thickness {m},Air Temperature Sensor Height Above Ground {m},Wind Speed Modifier Coefficient [Internal],Temperature Modifier Coefficient [Internal]
Environment:Weather Station,10.000,0.140,270.000,1.500,1.586,9.750E-003
! <Site:Location>, Location Name, Latitude {N+/S- Deg}, Longitude {E+/W- Deg},  Time Zone Number {GMT+/-}, Elevation {m},  Standard Pressure at Elevation {Pa}, Standard RhoAir at Elevation
Site:Location,Zermatt - - MN7 WMO#=67480,46.03,7.75,1.00,1638.00,83134,0.9881
! <Building Information>, Building Name,North Axis {deg},Terrain,  Loads Convergence Tolerance Value,Temperature Convergence Tolerance Value,  Solar Distribution,Maximum Number of Warmup Days,Minimum Number of Warmup Days
 Building Information,Building,0.000,Suburbs,4.00000E-002,0.40000,FullExterior,25,6
! <Inside Convection Algorithm>, Algorithm {Simple | TARP | CeilingDiffuser | AdaptiveConvectionAlgorithm}
Inside Convection Algorithm,TARP
! <Outside Convection Algorithm>, Algorithm {SimpleCombined | TARP | MoWitt | DOE-2 | AdaptiveConvectionAlgorithm}
Outside Convection Algorithm,DOE-2
! <Sky Radiance Distribution>, Value {Anisotropic}
Sky Radiance Distribution,Anisotropic
! <Zone Air Solution Algorithm>, Value {ThirdOrderBackwardDifference | AnalyticalSolution | EulerMethod}
 Zone Air Solution Algorithm, AnalyticalSolution
! <Zone Air Carbon Dioxide Balance Simulation>, Simulation {Yes/No}, Carbon Dioxide Concentration
 Zone Air Carbon Dioxide Balance Simulation, No,N/A
! <Zone Air Generic Contaminant Balance Simulation>, Simulation {Yes/No}, Generic Contaminant Concentration
 Zone Air Generic Contaminant Balance Simulation, No,N/A
! <Zone Air Mass Flow Balance Simulation>, Enforce Mass Balance, Adjust Zone Mixing, Adjust Zone Infiltration {AddInfiltration | AdjustInfiltration | None}, Infiltration Zones {MixingSourceZonesOnly | AllZones}
 Zone Air Mass Flow Balance Simulation, No,N/A,N/A,N/A
! <Environment:Site Atmospheric Variation>,Wind Speed Profile Exponent {},Wind Speed Profile Boundary Layer Thickness {m},Air Temperature Gradient Coefficient {K/m}
Environment:Site Atmospheric Variation,0.220,370.000,6.500000E-003
! <SurfaceGeometry>,Starting Corner,Vertex Input Direction,Coordinate System,Daylight Reference Point Coordinate System,Rectangular (Simple) Surface Coordinate System
 Surface Geometry,LowerLeftCorner,Counterclockwise,RelativeCoordinateSystem,RelativeCoordinateSystem,RelativeToZoneOrigin
! <Surface Heat Transfer Algorithm>, Value {CTF - ConductionTransferFunction | EMPD - MoisturePenetrationDepthConductionTransferFunction | CondFD - ConductionFiniteDifference | HAMT - CombinedHeatAndMoistureFiniteElement} - Description,Inside Surface Max Temperature Limit{C}, Surface Convection Coefficient Lower Limit {W/m2-K}, Surface Convection Coefficient Upper Limit {W/m2-K}
Surface Heat Transfer Algorithm, CTF - ConductionTransferFunction,200,0.10,1000.0
! <Shading Summary>, Number of Fixed Detached Shades, Number of Building Detached Shades, Number of Attached Shades
 Shading Summary,0,0,0
! <Zone Summary>, Number of Zones, Number of Zone Surfaces, Number of SubSurfaces
 Zone Summary,4,40,16
! <Zone Information>,Zone Name,North Axis {deg},Origin X-Coordinate {m},Origin Y-Coordinate {m},Origin Z-Coordinate {m},Centroid X-Coordinate {m},Centroid Y-Coordinate {m},Centroid Z-Coordinate {m},Type,Zone Multiplier,Zone List Multiplier,Minimum X {m},Maximum X {m},Minimum Y {m},Maximum Y {m},Minimum Z {m},Maximum Z {m},Ceiling Height {m},Volume {m3},Zone Inside Convection Algorithm {Simple-Detailed-CeilingDiffuser-TrombeWall},Zone Outside Convection Algorithm {Simple-Detailed-Tarp-MoWitt-DOE-2-BLAST}, Floor Area {m2},Exterior Gross Wall Area {m2},Exterior Net Wall Area {m2},Exterior Window Area {m2}, Number of Surfaces, Number of SubSurfaces, Number of Shading SubSurfaces,  Part of Total Building Area
 Zone Information, ZONEFLOOR0,0.0,0.00,0.00,0.00,7.40,12.55,1.26,1,1,1,-3.70,18.50,0.00,25.10,0.00,2.53,2.53,1060.34,TARP,DOE-2,419.94,207.80,174.46,31.17,6,4,0,Yes
 Zone Information, ZONEFLOOR1,0.0,0.00,0.00,0.00,7.40,12.55,3.79,1,1,1,-3.70,18.50,0.00,25.10,2.53,5.05,2.53,1060.34,TARP,DOE-2,419.94,207.80,174.46,31.17,6,4,0,Yes
 Zone Information, ZONEFLOOR2,0.0,0.00,0.00,0.00,7.40,12.55,6.31,1,1,1,-3.70,18.50,0.00,25.10,5.05,7.58,2.53,1060.34,TARP,DOE-2,419.94,207.80,174.46,31.17,6,4,0,Yes
 Zone Information, ZONEFLOOR3,0.0,0.00,0.00,0.00,7.40,12.55,8.84,1,1,1,-3.70,18.50,0.00,25.10,7.58,10.10,2.53,1060.34,TARP,DOE-2,419.94,207.80,174.46,31.17,6,4,0,Yes
! <Zone Internal Gains/Equipment Information - Nominal>,Zone Name, Floor Area {m2},# Occupants,Area per Occupant {m2/person},Occupant per Area {person/m2},Interior Lighting {W/m2},Electric Load {W/m2},Gas Load {W/m2},Other Load {W/m2},Hot Water Eq {W/m2},Steam Equipment {W/m2},Sum Loads per Area {W/m2},Outdoor Controlled Baseboard Heat
 Zone Internal Gains, ZONEFLOOR0,419.94,16.4,25.641,3.900E-002,10.310,6.400,0.000,0.000,4.217,0.000,20.927,No
 Zone Internal Gains, ZONEFLOOR1,419.94,16.4,25.641,3.900E-002,10.310,6.400,0.000,0.000,4.217,0.000,20.927,No
 Zone Internal Gains, ZONEFLOOR2,419.94,16.4,25.641,3.900E-002,10.310,6.400,0.000,0.000,4.217,0.000,20.927,No
 Zone Internal Gains, ZONEFLOOR3,419.94,16.4,25.641,3.900E-002,10.310,6.400,0.000,0.000,4.217,0.000,20.927,No
! <People Internal Gains - Nominal>,Name,Schedule Name,Zone Name,Zone Floor Area {m2},# Zone Occupants,Number of People {},People/Floor Area {person/m2},Floor Area per person {m2/person},Fraction Radiant,Fraction Convected,Sensible Fraction Calculation,Activity level,ASHRAE 55 Warnings,Carbon Dioxide Generation Rate,Nominal Minimum Number of People,Nominal Maximum Number of People
 People Internal Gains, ZONEFLOOR0_PEOPLE,MFH_NOMINAL_OCCUPANCY,ZONEFLOOR0,419.94,16.4,16.4,3.900E-002,25.641,0.300,0.700,AutoCalculate,MFH_NOMINAL_ACTIVITY,No,3.8200E-008,1,15
 People Internal Gains, ZONEFLOOR1_PEOPLE,MFH_NOMINAL_OCCUPANCY,ZONEFLOOR1,419.94,16.4,16.4,3.900E-002,25.641,0.300,0.700,AutoCalculate,MFH_NOMINAL_ACTIVITY,No,3.8200E-008,1,15
 People Internal Gains, ZONEFLOOR2_PEOPLE,MFH_NOMINAL_OCCUPANCY,ZONEFLOOR2,419.94,16.4,16.4,3.900E-002,25.641,0.300,0.700,AutoCalculate,MFH_NOMINAL_ACTIVITY,No,3.8200E-008,1,15
 People Internal Gains, ZONEFLOOR3_PEOPLE,MFH_NOMINAL_OCCUPANCY,ZONEFLOOR3,419.94,16.4,16.4,3.900E-002,25.641,0.300,0.700,AutoCalculate,MFH_NOMINAL_ACTIVITY,No,3.8200E-008,1,15
! <Lights Internal Gains - Nominal>,Name,Schedule Name,Zone Name,Zone Floor Area {m2},# Zone Occupants,Lighting Level {W},Lights/Floor Area {W/m2},Lights per person {W/person},Fraction Return Air,Fraction Radiant,Fraction Short Wave,Fraction Convected,Fraction Replaceable,End-Use Category,Nominal Minimum Lighting Level {W},Nominal Maximum Lighting Level {W}
 Lights Internal Gains, ZONEFLOOR0_LIGHTS,MFH_NOMINAL_LIGHTING,ZONEFLOOR0,419.94,16.4,4329.733,10.310,264.369,0.400,0.400,0.200,0.000,1.000,General,0.000,4329.733
 Lights Internal Gains, ZONEFLOOR1_LIGHTS,MFH_NOMINAL_LIGHTING,ZONEFLOOR1,419.94,16.4,4329.733,10.310,264.369,0.400,0.400,0.200,0.000,1.000,General,0.000,4329.733
 Lights Internal Gains, ZONEFLOOR2_LIGHTS,MFH_NOMINAL_LIGHTING,ZONEFLOOR2,419.94,16.4,4329.733,10.310,264.369,0.400,0.400,0.200,0.000,1.000,General,0.000,4329.733
 Lights Internal Gains, ZONEFLOOR3_LIGHTS,MFH_NOMINAL_LIGHTING,ZONEFLOOR3,419.94,16.4,4329.733,10.310,264.369,0.400,0.400,0.200,0.000,1.000,General,0.000,4329.733
! <ElectricEquipment Internal Gains - Nominal>,Name,Schedule Name,Zone Name,Zone Floor Area {m2},# Zone Occupants,Equipment Level {W},Equipment/Floor Area {W/m2},Equipment per person {W/person},Fraction Latent,Fraction Radiant,Fraction Lost,Fraction Convected,End-Use SubCategory,Nominal Minimum Equipment Level {W},Nominal Maximum Equipment Level {W}
 ElectricEquipment Internal Gains, ZONEFLOOR0_APPLIANCES,MFH_NOMINAL_APPLIANCES,ZONEFLOOR0,419.94,16.4,2687.606,6.400,164.103,0.000,0.750,0.000,0.250,General,310.741,2687.606
 ElectricEquipment Internal Gains, ZONEFLOOR1_APPLIANCES,MFH_NOMINAL_APPLIANCES,ZONEFLOOR1,419.94,16.4,2687.606,6.400,164.103,0.000,0.750,0.000,0.250,General,310.741,2687.606
 ElectricEquipment Internal Gains, ZONEFLOOR2_APPLIANCES,MFH_NOMINAL_APPLIANCES,ZONEFLOOR2,419.94,16.4,2687.606,6.400,164.103,0.000,0.750,0.000,0.250,General,310.741,2687.606
 ElectricEquipment Internal Gains, ZONEFLOOR3_APPLIANCES,MFH_NOMINAL_APPLIANCES,ZONEFLOOR3,419.94,16.4,2687.606,6.400,164.103,0.000,0.750,0.000,0.250,General,310.741,2687.606
! <HotWaterEquipment Internal Gains - Nominal>,Name,Schedule Name,Zone Name,Zone Floor Area {m2},# Zone Occupants,Equipment Level {W},Equipment/Floor Area {W/m2},Equipment per person {W/person},Fraction Latent,Fraction Radiant,Fraction Lost,Fraction Convected,End-Use SubCategory,Nominal Minimum Equipment Level {W},Nominal Maximum Equipment Level {W}
 HotWaterEquipment Internal Gains, ZONEFLOOR0_DHW,MFH_NOMINAL_DHW,ZONEFLOOR0,419.94,16.4,1770.740,4.217,108.120,0.000,0.000,1.000,0.000,General,0.000,1658.050
 HotWaterEquipment Internal Gains, ZONEFLOOR1_DHW,MFH_NOMINAL_DHW,ZONEFLOOR1,419.94,16.4,1770.740,4.217,108.120,0.000,0.000,1.000,0.000,General,0.000,1658.050
 HotWaterEquipment Internal Gains, ZONEFLOOR2_DHW,MFH_NOMINAL_DHW,ZONEFLOOR2,419.94,16.4,1770.740,4.217,108.120,0.000,0.000,1.000,0.000,General,0.000,1658.050
 HotWaterEquipment Internal Gains, ZONEFLOOR3_DHW,MFH_NOMINAL_DHW,ZONEFLOOR3,419.94,16.4,1770.740,4.217,108.120,0.000,0.000,1.000,0.000,General,0.000,1658.050
! <Shadowing/Sun Position Calculations> [Annual Simulations], Calculation Method, Value {days}, Allowable Number Figures in Shadow Overlap {}, Polygon Clipping Algorithm, Sky Diffuse Modeling Algorithm
Shadowing/Sun Position Calculations,AverageOverDaysInFrequency,7,15000,SutherlandHodgman,SimpleSkyDiffuseModeling
! <Infiltration Airflow Stats - Nominal>,Name,Schedule Name,Zone Name, Zone Floor Area {m2}, # Zone Occupants,Design Volume Flow Rate {m3/s},Volume Flow Rate/Floor Area {m3/s/m2},Volume Flow Rate/Exterior Surface Area {m3/s/m2},ACH - Air Changes per Hour,Equation A - Constant Term Coefficient {},Equation B - Temperature Term Coefficient {1/C},Equation C - Velocity Term Coefficient {s/m}, Equation D - Velocity Squared Term Coefficient {s2/m2}
 ZoneInfiltration Airflow Stats, ZONEFLOOR0_INFILTRATION,CONSTANT_1,ZONEFLOOR0,419.94,16.4,0.162,3.869E-004,7.819E-004,0.552,1.000,0.000,0.000,0.000
 ZoneInfiltration Airflow Stats, ZONEFLOOR1_INFILTRATION,CONSTANT_1,ZONEFLOOR1,419.94,16.4,0.162,3.869E-004,7.819E-004,0.552,1.000,0.000,0.000,0.000
 ZoneInfiltration Airflow Stats, ZONEFLOOR2_INFILTRATION,CONSTANT_1,ZONEFLOOR2,419.94,16.4,0.162,3.869E-004,7.819E-004,0.552,1.000,0.000,0.000,0.000
 ZoneInfiltration Airflow Stats, ZONEFLOOR3_INFILTRATION,CONSTANT_1,ZONEFLOOR3,419.94,16.4,0.162,3.869E-004,2.588E-004,0.552,1.000,0.000,0.000,0.000
! <AirFlow Model>, Simple
 AirFlow Model, Simple
! <RoomAir Model>, Zone Name, Mixing/Mundt/UCSDDV/UCSDCV/UCSDUFI/UCSDUFE/User Defined
RoomAir Model,ZONEFLOOR0,Mixing/Well-Stirred
RoomAir Model,ZONEFLOOR1,Mixing/Well-Stirred
RoomAir Model,ZONEFLOOR2,Mixing/Well-Stirred
RoomAir Model,ZONEFLOOR3,Mixing/Well-Stirred
! <AirflowNetwork Model:Control>, No Multizone or Distribution/Multizone with Distribution/Multizone without Distribution/Multizone with Distribution only during Fan Operation
AirflowNetwork Model:Control,NoMultizoneOrDistribution
! <Zone Volume Capacitance Multiplier>, Sensible Heat Capacity Multiplier, Moisture Capacity Multiplier, Carbon Dioxide Capacity Multiplier, Generic Contaminant Capacity Multiplier
Zone Volume Capacitance Multiplier,   1.000 ,   1.000,   1.000,   1.000
! <Environment>,Environment Name,Environment Type, Start Date, End Date, Start DayOfWeek, Duration {#days}, Source:Start DayOfWeek,  Use Daylight Saving, Use Holidays, Apply Weekend Holiday Rule,  Use Rain Values, Use Snow Values
! <Environment:Special Days>, Special Day Name, Special Day Type, Source, Start Date, Duration {#days}
! <Environment:Daylight Saving>, Daylight Saving Indicator, Source, Start Date, End Date
! <Environment:WarmupDays>, NumberofWarmupDays
Environment,DEFAULTRUNPERIOD,WeatherFileRunPeriod,01/01,12/31,Sunday,365,Use RunPeriod Specified Day,No,No,No,Yes,Yes
Environment:Daylight Saving,No,RunPeriod Object
Environment:WarmupDays,  6
! <Warmup Convergence Information>,Zone Name,Environment Type/Name,Average Warmup Temperature Difference {deltaC},Std Dev Warmup Temperature Difference {deltaC},Max Temperature Pass/Fail Convergence,Min Temperature Pass/Fail Convergence,Average Warmup Load Difference {W},Std Dev Warmup Load Difference {W},Heating Load Pass/Fail Convergence,Cooling Load Pass/Fail Convergence
 Warmup Convergence Information,ZONEFLOOR0,RunPeriod: DEFAULTRUNPERIOD,0.1505208333,0.4364408298,Pass,Pass,0.2954174122,1.9799919826,Pass,Pass
 Warmup Convergence Information,ZONEFLOOR1,RunPeriod: DEFAULTRUNPERIOD,0.1505210586,0.4321883245,Pass,Pass,0.2543414563,1.0806391787,Pass,Pass
 Warmup Convergence Information,ZONEFLOOR2,RunPeriod: DEFAULTRUNPERIOD,0.1505208332,0.4405414335,Pass,Pass,0.3274488803,2.1887562720,Pass,Pass
 Warmup Convergence Information,ZONEFLOOR3,RunPeriod: DEFAULTRUNPERIOD,0.1505208324,0.4616144182,Pass,Pass,6.9410426801E-002,0.1843273787,Pass,Pass
! <Program Control Information:Threads/Parallel Sims>, Threading Supported,Maximum Number of Threads, Env Set Threads (OMP_NUM_THREADS), EP Env Set Threads (EP_OMP_NUM_THREADS), IDF Set Threads, Number of Threads Used (Interior Radiant Exchange), Number Nominal Surfaces, Number Parallel Sims
Program Control:Threads/Parallel Sims, No,1, N/A, N/A, N/A, N/A, N/A, N/A
End of Data
